% ---------------- SOLVER -----------------
SOLVER = EULER
MATH_PROBLEM = DIRECT

% ---------------- MESH -------------------
MESH_FILENAME = mesh.su2
MESH_FORMAT   = SU2

% -------------- BOUNDARY -----------------
MARKER_NEARFIELD   = ( farfield )
MARKER_EULER       = ( airfoil )
MARKER_MONITORING  = ( airfoil )
BREAKDOWN_FILENAME = forces_breakdown.dat

% -------------- PHYSICS ------------------
MACH_NUMBER = 0.15
AOA         = 0.0

% -------------- NUMERICS -----------------
CONV_NUM_METHOD_FLOW = JST
SLOPE_LIMITER_FLOW   = BARTH_JESPERSEN
MUSCL_FLOW           = NO
NUM_METHOD_GRAD      = GREEN_GAUSS
TIME_DISCRE_FLOW     = RUNGE-KUTTA_EXPLICIT
LINEAR_SOLVER        = FGMRES
LINEAR_SOLVER_PREC   = ILU
LINEAR_SOLVER_ITER   = 50
LINEAR_SOLVER_ERROR  = 1E-3

% -------------- ITERATIONS ---------------
ITER       = 20000
CFL_NUMBER = 0.02
CFL_ADAPT  = NO

% -------------- OUTPUT -------------------
OUTPUT_WRT_FREQ = 50
OUTPUT_FILES    = ( CSV )
SCREEN_OUTPUT   = ( INNER_ITER, RMS_RES, LIFT, DRAG, MOMENT_Z, CL, CD, CMZ )
HISTORY_OUTPUT  = ( INNER_ITER, RMS_RES, LIFT, DRAG, MOMENT_Z, CL, CD, CMZ )
WRT_FORCES_BREAKDOWN = YES
