% ---------------- SOLVER -----------------
SOLVER = RANS
KIND_TURB_MODEL = SA
MATH_PROBLEM = DIRECT

% ---------------- MESH -------------------
MESH_FILENAME = mesh.su2
MESH_FORMAT   = SU2

% -------------- BOUNDARY -----------------
MARKER_NEARFIELD = ( farfield )
MARKER_HEATFLUX = ( airfoil, 0.0 )
MARKER_MONITORING = ( airfoil )
BREAKDOWN_FILENAME = forces_breakdown.dat

% -------------- PHYSICS ------------------
MACH_NUMBER = 0.2
REYNOLDS_NUMBER = 5e6
AOA = 2.0

% -------------- NUMERICS -----------------
CONV_NUM_METHOD_FLOW = JST
SLOPE_LIMITER_FLOW   = VENKATAKRISHNAN
SLOPE_LIMITER_TURB   = VENKATAKRISHNAN
TIME_DISCRE_FLOW     = EULER_IMPLICIT
NUM_METHOD_GRAD      = GREEN_GAUSS
MUSCL_FLOW           = NO
MUSCL_TURB           = NO
CONV_NUM_METHOD_TURB = SCALAR_UPWIND
RESTART_SOL          = YES
RESTART_FILENAME     = restart.csv
READ_BINARY_RESTART  = NO

% -------------- ITERATIONS ---------------
ITER = 800
CFL_NUMBER = 1.0
CFL_ADAPT = YES
CFL_ADAPT_PARAM = ( 0.5, 50.0, 0.5, 1.1 )

% -------------- OUTPUT -------------------
OUTPUT_WRT_FREQ = 50
OUTPUT_FILES = ( CSV )
SCREEN_OUTPUT = ( INNER_ITER, RMS_RES, LIFT, DRAG, MOMENT_Z, CL, CD, CMZ )
HISTORY_OUTPUT = ( INNER_ITER, RMS_RES, LIFT, DRAG, MOMENT_Z, CL, CD, CMZ )
WRT_FORCES_BREAKDOWN = YES
