% ---------------- SOLVER -----------------
SOLVER = EULER
MATH_PROBLEM = DIRECT

% ---------------- MESH -------------------
MESH_FILENAME = mesh.su2
MESH_FORMAT   = SU2

% -------------- BOUNDARY -----------------
MARKER_NEARFIELD = ( farfield )
MARKER_EULER     = ( airfoil )
MARKER_MONITORING = ( airfoil )
BREAKDOWN_FILENAME = forces_breakdown.dat

% -------------- PHYSICS ------------------
MACH_NUMBER = 0.2
AOA = 2.0

% -------------- NUMERICS -----------------
CONV_NUM_METHOD_FLOW = JST
SLOPE_LIMITER_FLOW   = VENKATAKRISHNAN
TIME_DISCRE_FLOW     = EULER_IMPLICIT
NUM_METHOD_GRAD      = GREEN_GAUSS
MUSCL_FLOW           = NO

% -------------- ITERATIONS ---------------
ITER = 800
CFL_NUMBER = 0.5
CFL_ADAPT = YES
CFL_ADAPT_PARAM = ( 0.5, 1.5, 0.5, 1.0 )

% -------------- OUTPUT -------------------
OUTPUT_WRT_FREQ = 50
OUTPUT_FILES = ( CSV )
SCREEN_OUTPUT = ( INNER_ITER, RMS_RES, LIFT, DRAG, MOMENT_Z, CL, CD, CMZ )
HISTORY_OUTPUT = ( INNER_ITER, RMS_RES, LIFT, DRAG, MOMENT_Z, CL, CD, CMZ )
WRT_FORCES_BREAKDOWN = YES
